
[TITLE]
EPANET Network generated through Rhino Grasshopper.
Based on epanet by Open Water Analytics.
Implementation by Martin Dennemark - Bauhaus University Weimar - InfAR Department.

[JUNCTIONS]
;ID   	Elev                	Demand              	Pattern             
0     	-407.002990722656   	0                   	                    	;
1     	-408.217010498047   	0                   	                    	;
2     	-411.846008300781   	0                   	                    	;
3     	-414.430999755859   	0                   	                    	;
4     	-415.704986572266   	0                   	                    	;
5     	-419.361999511719   	0                   	                    	;
7     	-293.837005615234   	0                   	                    	;
8     	-320.341003417969   	0                   	                    	;
9     	-337.933013916016   	0                   	                    	;
10    	-340.740997314453   	0                   	                    	;
12    	-358.015014648438   	0                   	                    	;
14    	-377.149993896484   	0                   	                    	;
15    	-383.635986328125   	0                   	                    	;
16    	-389.069000244141   	0                   	                    	;
17    	-393.68798828125    	0                   	                    	;
18    	-424.226013183594   	0                   	                    	;
19    	-396.300994873047   	0                   	                    	;
20    	-423.380004882813   	0                   	                    	;
21    	-418.380004882813   	0                   	                    	;
22    	-421.703002929688   	0                   	                    	;
23    	-399.240997314453   	0                   	                    	;
24    	-417.39599609375    	0                   	                    	;
26    	-422.044006347656   	0                   	                    	;
27    	-412.506988525391   	0                   	                    	;
29    	-410.579986572266   	0                   	                    	;
30    	-406.049987792969   	0                   	                    	;
31    	-410.796997070313   	0                   	                    	;
32    	-404.507995605469   	0                   	                    	;
35    	-399.997985839844   	0                   	                    	;
36    	-408.161010742188   	0                   	                    	;
38    	-378.4580078125     	0                   	                    	;
40    	-418.203002929688   	0                   	                    	;
41    	-391.56298828125    	0                   	                    	;
42    	-412.162994384766   	0                   	                    	;
43    	-419.132995605469   	0                   	                    	;
44    	-419.497009277344   	0                   	                    	;
45    	-387.661010742188   	0                   	                    	;
48    	-410.746002197266   	0                   	                    	;
49    	-406.178985595703   	0                   	                    	;
50    	-396.367004394531   	0                   	                    	;
52    	-392.222991943359   	0                   	                    	;
53    	-380.394989013672   	0                   	                    	;
54    	-403.222991943359   	0                   	                    	;
55    	-405.06201171875    	0                   	                    	;
57    	-406.433013916016   	0                   	                    	;
58    	-401.605987548828   	0                   	                    	;
59    	-405.009002685547   	0                   	                    	;
60    	-407.816986083984   	0                   	                    	;
61    	-408.774993896484   	0                   	                    	;
63    	-413.893005371094   	0                   	                    	;
64    	-414.398010253906   	0                   	                    	;
65    	-410.27099609375    	0                   	                    	;
66    	-408.1669921875     	0                   	                    	;
67    	-407.449005126953   	0                   	                    	;
68    	-407.31201171875    	0                   	                    	;
69    	-409.100006103516   	0                   	                    	;
70    	-414.779998779297   	0                   	                    	;
72    	-421.790985107422   	0                   	                    	;
73    	-428.959014892578   	0                   	                    	;
74    	-428.415985107422   	0                   	                    	;
75    	-432.542999267578   	0                   	                    	;
76    	-434.842987060547   	0                   	                    	;
77    	-435.798004150391   	0                   	                    	;
78    	-432.359008789063   	0                   	                    	;
80    	-422.822998046875   	0                   	                    	;
82    	-426.320007324219   	0                   	                    	;
83    	-425.877990722656   	0                   	                    	;
86    	-426.476989746094   	0                   	                    	;
89    	-422.018005371094   	0                   	                    	;
92    	-416.213012695313   	0                   	                    	;
94    	-426.699005126953   	0                   	                    	;
95    	-429.253997802734   	0                   	                    	;
96    	-430.561004638672   	0                   	                    	;
97    	-429.248992919922   	0                   	                    	;
98    	-425.372009277344   	0                   	                    	;
99    	-428.445007324219   	0                   	                    	;
100   	-430.216003417969   	0                   	                    	;
102   	-379.920989990234   	0                   	                    	;
103   	-392.338012695313   	0                   	                    	;
104   	-403.480987548828   	0                   	                    	;
105   	-413.196990966797   	0                   	                    	;
106   	-413.817993164063   	0                   	                    	;
107   	-411.652008056641   	0                   	                    	;
108   	-417.106994628906   	0                   	                    	;
109   	-387.175994873047   	0                   	                    	;
111   	-388.079010009766   	0                   	                    	;
112   	-385.273986816406   	0                   	                    	;
113   	-386.781005859375   	0                   	                    	;
114   	-361.154998779297   	0                   	                    	;
115   	-374.109008789063   	0                   	                    	;
116   	-350.609008789063   	0                   	                    	;
118   	-386.105987548828   	0                   	                    	;
119   	-307.092010498047   	0                   	                    	;
120   	-376.394012451172   	0                   	                    	;
122   	-342.928985595703   	0                   	                    	;
123   	-346.825988769531   	0                   	                    	;
124   	-381.959991455078   	0                   	                    	;
126   	-321.976013183594   	0                   	                    	;
127   	-342.609985351563   	0                   	                    	;
128   	-417.713989257813   	0                   	                    	;
129   	-416.835998535156   	0                   	                    	;
130   	-423.372009277344   	0                   	                    	;
131   	-426.085998535156   	0                   	                    	;
132   	-428.332000732422   	0                   	                    	;
133   	-431.640014648438   	0                   	                    	;
134   	-432.221984863281   	0                   	                    	;
135   	-433.053009033203   	0                   	                    	;
136   	-434.282989501953   	0                   	                    	;
137   	-434.003997802734   	0                   	                    	;
138   	-436.975006103516   	0                   	                    	;
139   	-441.096984863281   	0                   	                    	;
140   	-441.864990234375   	0                   	                    	;
142   	-438.656005859375   	0                   	                    	;
143   	-438.804992675781   	0                   	                    	;
144   	-444.265014648438   	0                   	                    	;
145   	-411.828002929688   	0                   	                    	;
147   	-442.269012451172   	0                   	                    	;
148   	-421.986999511719   	0                   	                    	;
149   	-443.588012695313   	0                   	                    	;
150   	-426.454010009766   	0                   	                    	;
153   	-419.531005859375   	0                   	                    	;
156   	-415.408996582031   	0                   	                    	;
159   	-420.359985351563   	0                   	                    	;
161   	-429.813995361328   	0                   	                    	;
162   	-425.570007324219   	0                   	                    	;
163   	-425.126007080078   	0                   	                    	;
164   	-424.660003662109   	0                   	                    	;
165   	-407.015991210938   	0                   	                    	;
166   	-405.852996826172   	0                   	                    	;
167   	-408.950988769531   	0                   	                    	;
170   	-429.505004882813   	0                   	                    	;
171   	-430.533996582031   	0                   	                    	;
172   	-435.231994628906   	0                   	                    	;
173   	-431.430999755859   	0                   	                    	;
175   	-413.429992675781   	0                   	                    	;
176   	-415.949005126953   	0                   	                    	;
177   	-412.634002685547   	0                   	                    	;
178   	-407.011993408203   	0                   	                    	;
179   	-397.588989257813   	0                   	                    	;
180   	-386.871002197266   	0                   	                    	;
181   	-381.975006103516   	0                   	                    	;
182   	-383.026000976563   	0                   	                    	;
183   	-394.558013916016   	0                   	                    	;
184   	-399.218994140625   	0                   	                    	;
185   	-393.136993408203   	0                   	                    	;
186   	-374.751007080078   	0                   	                    	;
187   	-352.131988525391   	0                   	                    	;
189   	-356.359985351563   	0                   	                    	;
191   	-404                	0                   	                    	;
193   	-403.876007080078   	0                   	                    	;
195   	-430.748992919922   	0                   	                    	;
197   	-364.343994140625   	0                   	                    	;
199   	-381.100006103516   	0                   	                    	;
200   	-381.873992919922   	0                   	                    	;
201   	-395.226989746094   	0                   	                    	;
202   	-395.683013916016   	0                   	                    	;
203   	-381.433013916016   	0                   	                    	;
204   	-389.563995361328   	0                   	                    	;
206   	-396.260009765625   	0                   	                    	;
208   	-410.881988525391   	0                   	                    	;
209   	-423.804992675781   	0                   	                    	;
211   	-422.841003417969   	0                   	                    	;
212   	-422.885986328125   	0                   	                    	;
213   	-424.161987304688   	0                   	                    	;
214   	-423.218994140625   	0                   	                    	;
215   	-425.501007080078   	0                   	                    	;
216   	-421.880004882813   	0                   	                    	;
217   	-410.808013916016   	0                   	                    	;
218   	-416.648010253906   	0                   	                    	;
219   	-398.877014160156   	0                   	                    	;
220   	-380.324005126953   	0                   	                    	;
221   	-374.403991699219   	0                   	                    	;
222   	-417.617004394531   	0                   	                    	;
223   	-410.122985839844   	0                   	                    	;
224   	-423.111999511719   	0                   	                    	;
225   	-430.723999023438   	0                   	                    	;
226   	-435.329986572266   	0                   	                    	;
227   	-429.257995605469   	0                   	                    	;
228   	-435.567993164063   	0                   	                    	;
229   	-429.566986083984   	0                   	                    	;
230   	-431.091003417969   	0                   	                    	;
231   	-441.264007568359   	0                   	                    	;
234   	-438.957000732422   	0                   	                    	;
235   	-432.768005371094   	0                   	                    	;
236   	-430.511993408203   	0                   	                    	;
240   	-373.674987792969   	0                   	                    	;
241   	-381.673004150391   	0                   	                    	;
242   	-382.076995849609   	0                   	                    	;
243   	-389.436004638672   	0                   	                    	;
244   	-394.736999511719   	0                   	                    	;
245   	-393.510009765625   	0                   	                    	;
247   	-401.463012695313   	0                   	                    	;
248   	-392.614990234375   	0                   	                    	;
251   	-420.785003662109   	0                   	                    	;
252   	-416.713989257813   	0                   	                    	;
256   	-397.398010253906   	0                   	                    	;
257   	-404.046997070313   	0                   	                    	;
261   	-414.300994873047   	0                   	                    	;
262   	-412.402008056641   	0                   	                    	;
263   	-405.101989746094   	0                   	                    	;
264   	-409.442993164063   	0                   	                    	;
267   	-436.092010498047   	0                   	                    	;
269   	-412.154998779297   	0                   	                    	;
270   	-421.272003173828   	0                   	                    	;
271   	-430.428009033203   	0                   	                    	;
272   	-432.548004150391   	0                   	                    	;
275   	-391.345001220703   	0                   	                    	;
276   	-391.472991943359   	0                   	                    	;
277   	-390.106994628906   	0                   	                    	;
280   	-432.459991455078   	0                   	                    	;
281   	-433.947998046875   	0                   	                    	;
282   	-434.755004882813   	0                   	                    	;
283   	-428.614013671875   	0                   	                    	;
288   	-440.985992431641   	0                   	                    	;
290   	-351.026000976563   	0                   	                    	;
292   	-358.638000488281   	0                   	                    	;
295   	-365.953002929688   	0                   	                    	;
296   	-378.981994628906   	0                   	                    	;
298   	-378.10400390625    	0                   	                    	;
299   	-413.842010498047   	0                   	                    	;
301   	-415.591003417969   	0                   	                    	;
302   	-414.070007324219   	0                   	                    	;
303   	-416.889007568359   	0                   	                    	;
305   	-444.156005859375   	0                   	                    	;
306   	-447.286010742188   	0                   	                    	;
307   	-442.18798828125    	0                   	                    	;
310   	-433.169006347656   	0                   	                    	;
311   	-432.345001220703   	0                   	                    	;
312   	-431.093994140625   	0                   	                    	;
313   	-432.674987792969   	0                   	                    	;
314   	-434.467987060547   	0                   	                    	;
315   	-435.186004638672   	0                   	                    	;
316   	-435.56298828125    	0                   	                    	;
317   	-424.940002441406   	0                   	                    	;
318   	-415.915985107422   	0                   	                    	;
319   	-424.535003662109   	0                   	                    	;
320   	-429.14599609375    	0                   	                    	;
321   	-434.194000244141   	0                   	                    	;
322   	-434.054992675781   	0                   	                    	;
325   	-323.287994384766   	0                   	                    	;
326   	-346.829010009766   	0                   	                    	;
328   	-395.167999267578   	0                   	                    	;
331   	-409.709014892578   	0                   	                    	;
332   	-417.488006591797   	0                   	                    	;
333   	-423.829010009766   	0                   	                    	;
336   	-414.988006591797   	0                   	                    	;
338   	-418.290985107422   	0                   	                    	;
339   	-431.042999267578   	0                   	                    	;
340   	-422.075988769531   	0                   	                    	;
341   	-426.811004638672   	0                   	                    	;
342   	-424.700012207031   	0                   	                    	;
343   	-425.792999267578   	0                   	                    	;
346   	-397.428009033203   	0                   	                    	;
348   	-393.959014892578   	0                   	                    	;
349   	-394.311004638672   	0                   	                    	;
351   	-376.908996582031   	0                   	                    	;
353   	-406.654998779297   	0                   	                    	;
354   	-402.782012939453   	0                   	                    	;
355   	-394.292999267578   	0                   	                    	;
356   	-398.815002441406   	0                   	                    	;
358   	-403.128997802734   	0                   	                    	;
359   	-407.376007080078   	0                   	                    	;
360   	-410.4169921875     	0                   	                    	;
361   	-411.321014404297   	0                   	                    	;
366   	-363.825012207031   	0                   	                    	;
367   	-366.910003662109   	0                   	                    	;
369   	-438.22900390625    	0                   	                    	;
371   	-412.036010742188   	0                   	                    	;
372   	-418.210998535156   	0                   	                    	;
374   	-410.97900390625    	0                   	                    	;
376   	-414.252014160156   	0                   	                    	;
377   	-417.760986328125   	0                   	                    	;
379   	-405.592987060547   	0                   	                    	;
381   	-361.381988525391   	0                   	                    	;
383   	-370.828002929688   	0                   	                    	;
385   	-406.47900390625    	0                   	                    	;
388   	-380.920989990234   	0                   	                    	;
391   	-410.213012695313   	0                   	                    	;
392   	-415.630004882813   	0                   	                    	;
393   	-424.105010986328   	0                   	                    	;
394   	-425.141998291016   	0                   	                    	;
395   	-425.420013427734   	0                   	                    	;
397   	-421.914001464844   	0                   	                    	;
398   	-425.984985351563   	0                   	                    	;
400   	-423.315002441406   	0                   	                    	;
401   	-421.298004150391   	0                   	                    	;
403   	-438.606994628906   	0                   	                    	;
405   	-441.223999023438   	0                   	                    	;
409   	-425.3330078125     	0                   	                    	;
411   	-416.809997558594   	0                   	                    	;
414   	-351.587005615234   	0                   	                    	;
416   	-346.033996582031   	0                   	                    	;
417   	-332.22900390625    	0                   	                    	;
419   	-302.790985107422   	0                   	                    	;
420   	-317.110992431641   	0                   	                    	;
421   	-314.2919921875     	0                   	                    	;
422   	-328.787994384766   	0                   	                    	;
423   	-331.869995117188   	0                   	                    	;
424   	-326.81298828125    	0                   	                    	;
425   	-323.216003417969   	0                   	                    	;
427   	-342.212005615234   	0                   	                    	;
428   	-354.420013427734   	0                   	                    	;
429   	-431.4580078125     	0                   	                    	;
431   	-443.97900390625    	0                   	                    	;
432   	-444.313995361328   	0                   	                    	;
434   	-432.204010009766   	0                   	                    	;
436   	-432.886993408203   	0                   	                    	;
437   	-433.942993164063   	0                   	                    	;
439   	-437.044006347656   	0                   	                    	;
442   	-420.782989501953   	0                   	                    	;
447   	-418.3330078125     	0                   	                    	;
449   	-367.976989746094   	0                   	                    	;
454   	-407.247985839844   	0                   	                    	;
456   	-409.160003662109   	0                   	                    	;
458   	-415.705993652344   	0                   	                    	;
460   	-425.5              	0                   	                    	;
462   	-440.630004882813   	0                   	                    	;
463   	-439.877990722656   	0                   	                    	;
464   	-441.917999267578   	0                   	                    	;
465   	-440.648986816406   	0                   	                    	;
471   	-413.029998779297   	0                   	                    	;
472   	-410.648010253906   	0                   	                    	;
475   	-392.756011962891   	0                   	                    	;
479   	-398.945007324219   	0                   	                    	;
481   	-390.214996337891   	0                   	                    	;
483   	-415.389007568359   	0                   	                    	;
484   	-398.477996826172   	0                   	                    	;
486   	-426.490997314453   	0                   	                    	;
488   	-350.342987060547   	0                   	                    	;
490   	-434.739013671875   	0                   	                    	;
491   	-427.230987548828   	0                   	                    	;
493   	-416.118988037109   	0                   	                    	;
495   	-414.864990234375   	0                   	                    	;
497   	-425.626007080078   	0                   	                    	;
498   	-420.575988769531   	0                   	                    	;
499   	-412.618011474609   	0                   	                    	;
500   	-407.005004882813   	0                   	                    	;
505   	-393.994995117188   	0                   	                    	;
506   	-394.960998535156   	0                   	                    	;
510   	-429.644012451172   	0                   	                    	;
512   	-430.742004394531   	0                   	                    	;
517   	-412.744995117188   	0                   	                    	;
521   	-428.303009033203   	0                   	                    	;
522   	-428.903991699219   	0                   	                    	;
523   	-427.716003417969   	0                   	                    	;
524   	-424.382995605469   	0                   	                    	;
527   	-424.319000244141   	0                   	                    	;
528   	-419.868011474609   	0                   	                    	;
529   	-412.428985595703   	0                   	                    	;
533   	-426.673004150391   	0                   	                    	;
536   	-419.519989013672   	0                   	                    	;
537   	-414.865997314453   	0                   	                    	;
538   	-413.238006591797   	0                   	                    	;
539   	-413.868011474609   	0                   	                    	;
540   	-420.778991699219   	0                   	                    	;
541   	-433.643005371094   	0                   	                    	;
542   	-430.427001953125   	0                   	                    	;
546   	-392.694000244141   	0                   	                    	;
548   	-326.402008056641   	0                   	                    	;
550   	-322.710998535156   	0                   	                    	;
551   	-321.489990234375   	0                   	                    	;
555   	-421.295013427734   	0                   	                    	;
559   	-424.122985839844   	0                   	                    	;
560   	-425.946990966797   	0                   	                    	;
562   	-434.036010742188   	0                   	                    	;
563   	-432.601013183594   	0                   	                    	;
564   	-430.524993896484   	0                   	                    	;
565   	-430.282989501953   	0                   	                    	;
567   	-442.053009033203   	0                   	                    	;
570   	-404.967010498047   	0                   	                    	;
572   	-400.9169921875     	0                   	                    	;
577   	-395.394012451172   	0                   	                    	;
578   	-384.561004638672   	0                   	                    	;
579   	-370.311004638672   	0                   	                    	;
580   	-339.43798828125    	0                   	                    	;
582   	-353.071014404297   	0                   	                    	;
583   	-326.467010498047   	0                   	                    	;
586   	-366.515014648438   	0                   	                    	;
588   	-371.290008544922   	0                   	                    	;
589   	-398.774993896484   	0                   	                    	;
591   	-391.239990234375   	0                   	                    	;
594   	-418.235992431641   	0                   	                    	;
595   	-419.299987792969   	0                   	                    	;
598   	-416.678009033203   	0                   	                    	;
599   	-419.132995605469   	0                   	                    	;
600   	-414.717010498047   	0                   	                    	;
601   	-418.098999023438   	0                   	                    	;
602   	-421.753997802734   	0                   	                    	;
607   	-432.828002929688   	0                   	                    	;
611   	-415.936004638672   	0                   	                    	;
612   	-418.082000732422   	0                   	                    	;
615   	-425.601989746094   	0                   	                    	;
617   	-416.002990722656   	0                   	                    	;
619   	-414.739013671875   	0                   	                    	;
620   	-415.553985595703   	0                   	                    	;
622   	-409.997985839844   	0                   	                    	;
623   	-412.662994384766   	0                   	                    	;
624   	-420.113006591797   	0                   	                    	;
626   	-419.442993164063   	0                   	                    	;
627   	-411.463989257813   	0                   	                    	;
628   	-399.528991699219   	0                   	                    	;
629   	-378.171997070313   	0                   	                    	;
630   	-390.165008544922   	0                   	                    	;
631   	-398.045989990234   	0                   	                    	;
632   	-413.950988769531   	0                   	                    	;
633   	-405.794006347656   	0                   	                    	;
634   	-412.007995605469   	0                   	                    	;
635   	-428.483001708984   	0                   	                    	;
636   	-425.700012207031   	0                   	                    	;
637   	-405.626007080078   	0                   	                    	;
638   	-427.894012451172   	0                   	                    	;
639   	-425.825988769531   	0                   	                    	;